<edges>
  <edge id="e0_15" from="n0" to="n15" length="1122.826" numLanes="1" speed="13.89"/>
  <edge id="e15_39" from="n15" to="n39" length="344.87" numLanes="1" speed="13.89"/>
  <edge id="e39_7" from="n39" to="n7" length="239.931" numLanes="1" speed="13.89"/>
  <edge id="e7_27" from="n7" to="n27" length="308.511" numLanes="1" speed="13.89"/>
  <edge id="e27_3" from="n27" to="n3" length="156.348" numLanes="1" speed="13.89"/>
  <edge id="e3_35" from="n3" to="n35" length="147.799" numLanes="1" speed="13.89"/>
  <edge id="e35_55" from="n35" to="n55" length="413.394" numLanes="1" speed="13.89"/>
  <edge id="e55_43" from="n55" to="n43" length="427.682" numLanes="1" speed="13.89"/>
  <edge id="e43_23" from="n43" to="n23" length="286.645" numLanes="1" speed="13.89"/>
  <edge id="e23_34" from="n23" to="n34" length="565.828" numLanes="1" speed="13.89"/>
  <edge id="e34_18" from="n34" to="n18" length="113.15" numLanes="1" speed="13.89"/>
  <edge id="e18_22" from="n18" to="n22" length="142.192" numLanes="1" speed="13.89"/>
  <edge id="e22_0" from="n22" to="n0" length="102.625" numLanes="1" speed="13.89"/>
  <edge id="e0_2" from="n0" to="n2" length="366.356" numLanes="1" speed="13.89"/>
  <edge id="e2_50" from="n2" to="n50" length="202.647" numLanes="1" speed="13.89"/>
  <edge id="e50_12" from="n50" to="n12" length="265.362" numLanes="1" speed="13.89"/>
  <edge id="e12_42" from="n12" to="n42" length="283.375" numLanes="1" speed="13.89"/>
  <edge id="e42_10" from="n42" to="n10" length="142.635" numLanes="1" speed="13.89"/>
  <edge id="e10_26" from="n10" to="n26" length="150.923" numLanes="1" speed="13.89"/>
  <edge id="e26_0" from="n26" to="n0" length="216.829" numLanes="1" speed="13.89"/>
  <edge id="e0_11" from="n0" to="n11" length="1272.242" numLanes="1" speed="13.89"/>
  <edge id="e11_30" from="n11" to="n30" length="1036.487" numLanes="1" speed="13.89"/>
  <edge id="e30_6" from="n30" to="n6" length="63.274" numLanes="1" speed="13.89"/>
  <edge id="e6_0" from="n6" to="n0" length="177.797" numLanes="1" speed="13.89"/>
  <edge id="e0_53" from="n0" to="n53" length="367.069" numLanes="1" speed="13.89"/>
  <edge id="e53_32" from="n53" to="n32" length="726.858" numLanes="1" speed="13.89"/>
  <edge id="e32_16" from="n32" to="n16" length="223.803" numLanes="1" speed="13.89"/>
  <edge id="e16_24" from="n16" to="n24" length="234.379" numLanes="1" speed="13.89"/>
  <edge id="e24_48" from="n24" to="n48" length="36.985" numLanes="1" speed="13.89"/>
  <edge id="e48_36" from="n48" to="n36" length="126.777" numLanes="1" speed="13.89"/>
  <edge id="e36_14" from="n36" to="n14" length="559.714" numLanes="1" speed="13.89"/>
  <edge id="e14_0" from="n14" to="n0" length="404.523" numLanes="1" speed="13.89"/>
  <edge id="e0_40" from="n0" to="n40" length="1487.167" numLanes="1" speed="13.89"/>
  <edge id="e40_8" from="n40" to="n8" length="455.685" numLanes="1" speed="13.89"/>
  <edge id="e8_5" from="n8" to="n5" length="215.448" numLanes="1" speed="13.89"/>
  <edge id="e5_28" from="n5" to="n28" length="220.85" numLanes="1" speed="13.89"/>
  <edge id="e28_44" from="n28" to="n44" length="105.344" numLanes="1" speed="13.89"/>
  <edge id="e44_20" from="n44" to="n20" length="128.233" numLanes="1" speed="13.89"/>
  <edge id="e20_51" from="n20" to="n51" length="355.016" numLanes="1" speed="13.89"/>
  <edge id="e51_1" from="n51" to="n1" length="137.934" numLanes="1" speed="13.89"/>
  <edge id="e1_38" from="n1" to="n38" length="346.718" numLanes="1" speed="13.89"/>
  <edge id="e38_46" from="n38" to="n46" length="150.923" numLanes="1" speed="13.89"/>
  <edge id="e46_0" from="n46" to="n0" length="256.985" numLanes="1" speed="13.89"/>
</edges>
