<nodes>
  <node id="n0" x="0.0" y="0.0" type="priority"/>
  <node id="n1" x="-600.42" y="-225.252" type="priority"/>
  <node id="n2" x="44.537" y="-363.639" type="priority"/>
  <node id="n3" x="774.03" y="439.721" type="priority"/>
  <node id="n5" x="-866.815" y="-694.328" type="priority"/>
  <node id="n6" x="-142.27" y="106.635" type="priority"/>
  <node id="n7" x="1003.311" y="839.304" type="priority"/>
  <node id="n8" x="-779.803" y="-891.424" type="priority"/>
  <node id="n10" x="315.88" y="-26.359" type="priority"/>
  <node id="n11" x="-1058.57" y="705.711" type="priority"/>
  <node id="n12" x="463.511" y="-425.942" type="priority"/>
  <node id="n14" x="-279.591" y="-292.349" type="priority"/>
  <node id="n15" x="1058.982" y="373.224" type="priority"/>
  <node id="n16" x="-1150.117" y="-506.818" type="priority"/>
  <node id="n18" x="5.361" y="225.252" type="priority"/>
  <node id="n20" x="-463.098" y="-639.812" type="priority"/>
  <node id="n22" x="-44.949" y="92.258" type="priority"/>
  <node id="n23" x="417.737" y="757.83" type="priority"/>
  <node id="n24" x="-957.125" y="-373.823" type="priority"/>
  <node id="n26" x="188.456" y="-107.234" type="priority"/>
  <node id="n27" x="875.887" y="558.338" type="priority"/>
  <node id="n28" x="-682.07" y="-573.315" type="priority"/>
  <node id="n30" x="-178.147" y="158.755" type="priority"/>
  <node id="n32" x="-1048.673" y="-307.326" type="priority"/>
  <node id="n34" x="96.908" y="291.75" type="priority"/>
  <node id="n35" x="646.606" y="364.837" type="priority"/>
  <node id="n36" x="-819.391" y="-440.32" type="priority"/>
  <node id="n38" x="-361.242" y="25.76" type="priority"/>
  <node id="n39" x="1192.18" y="691.333" type="priority"/>
  <node id="n40" x="-1231.768" y="-833.314" type="priority"/>
  <node id="n42" x="367.427" y="-159.354" type="priority"/>
  <node id="n43" x="555.058" y="506.219" type="priority"/>
  <node id="n44" x="-590.523" y="-625.435" type="priority"/>
  <node id="n46" x="-233.817" y="106.635" type="priority"/>
  <node id="n48" x="-921.248" y="-364.837" type="priority"/>
  <node id="n50" x="234.23" y="-292.349" type="priority"/>
  <node id="n51" x="-476.115" y="-285.035" type="priority"/>
  <node id="n53" x="-344.867" y="-125.724" type="priority"/>
  <node id="n55" x="275.622" y="182.449" type="priority"/>
</nodes>
