<configuration>
  <input>
    <net-file value="network.net.xml"/>
    <route-files value="vehicles.rou.xml"/>
    <additional-files value="additional.add.xml"/>
  </input>
  <time>
    <begin value="0"/>
    <end value="86400"/>
  </time>
  <processing>
    <collision.action value="warn"/>
    <time-to-teleport value="-1"/>
  </processing>
</configuration>
