<edges>
  <edge id="e0_58" from="n0" to="n58" length="1457.004" numLanes="1" speed="13.89"/>
  <edge id="e58_50" from="n58" to="n50" length="339.507" numLanes="1" speed="13.89"/>
  <edge id="e50_18" from="n50" to="n18" length="1287.03" numLanes="1" speed="13.89"/>
  <edge id="e18_17" from="n18" to="n17" length="150.844" numLanes="1" speed="13.89"/>
  <edge id="e17_57" from="n17" to="n57" length="520.563" numLanes="1" speed="13.89"/>
  <edge id="e57_49" from="n57" to="n49" length="647.378" numLanes="1" speed="13.89"/>
  <edge id="e49_51" from="n49" to="n51" length="1405.941" numLanes="1" speed="13.89"/>
  <edge id="e51_46" from="n51" to="n46" length="859.247" numLanes="1" speed="13.89"/>
  <edge id="e46_45" from="n46" to="n45" length="216.185" numLanes="1" speed="13.89"/>
  <edge id="e45_44" from="n45" to="n44" length="211.367" numLanes="1" speed="13.89"/>
  <edge id="e44_43" from="n44" to="n43" length="205.35" numLanes="1" speed="13.89"/>
  <edge id="e43_55" from="n43" to="n55" length="1261.996" numLanes="1" speed="13.89"/>
  <edge id="e55_54" from="n55" to="n54" length="1337.308" numLanes="1" speed="13.89"/>
  <edge id="e54_33" from="n54" to="n33" length="303.386" numLanes="1" speed="13.89"/>
  <edge id="e33_53" from="n33" to="n53" length="421.165" numLanes="1" speed="13.89"/>
  <edge id="e53_52" from="n53" to="n52" length="608.795" numLanes="1" speed="13.89"/>
  <edge id="e52_0" from="n52" to="n0" length="1500.044" numLanes="1" speed="13.89"/>
  <edge id="e0_42" from="n0" to="n42" length="302.385" numLanes="1" speed="13.89"/>
  <edge id="e42_3" from="n42" to="n3" length="1177.834" numLanes="1" speed="13.89"/>
  <edge id="e3_34" from="n3" to="n34" length="1195.684" numLanes="1" speed="13.89"/>
  <edge id="e34_1" from="n34" to="n1" length="1240.402" numLanes="1" speed="13.89"/>
  <edge id="e1_2" from="n1" to="n2" length="218.496" numLanes="1" speed="13.89"/>
  <edge id="e2_41" from="n2" to="n41" length="1230.466" numLanes="1" speed="13.89"/>
  <edge id="e41_40" from="n41" to="n40" length="211.367" numLanes="1" speed="13.89"/>
  <edge id="e40_39" from="n40" to="n39" length="216.185" numLanes="1" speed="13.89"/>
  <edge id="e39_0" from="n39" to="n0" length="633.793" numLanes="1" speed="13.89"/>
  <edge id="e0_47" from="n0" to="n47" length="1178.573" numLanes="1" speed="13.89"/>
  <edge id="e47_48" from="n47" to="n48" length="205.35" numLanes="1" speed="13.89"/>
  <edge id="e48_56" from="n48" to="n56" length="1330.109" numLanes="1" speed="13.89"/>
  <edge id="e56_22" from="n56" to="n22" length="813.609" numLanes="1" speed="13.89"/>
  <edge id="e22_21" from="n22" to="n21" length="221.908" numLanes="1" speed="13.89"/>
  <edge id="e21_20" from="n21" to="n20" length="205.349" numLanes="1" speed="13.89"/>
  <edge id="e20_26" from="n20" to="n26" length="1243.463" numLanes="1" speed="13.89"/>
  <edge id="e26_25" from="n26" to="n25" length="194.193" numLanes="1" speed="13.89"/>
  <edge id="e25_19" from="n25" to="n19" length="1270.613" numLanes="1" speed="13.89"/>
  <edge id="e19_0" from="n19" to="n0" length="1367.223" numLanes="1" speed="13.89"/>
  <edge id="e0_38" from="n0" to="n38" length="822.468" numLanes="1" speed="13.89"/>
  <edge id="e38_37" from="n38" to="n37" length="205.349" numLanes="1" speed="13.89"/>
  <edge id="e37_30" from="n37" to="n30" length="551.421" numLanes="1" speed="13.89"/>
  <edge id="e30_29" from="n30" to="n29" length="205.349" numLanes="1" speed="13.89"/>
  <edge id="e29_28" from="n29" to="n28" length="211.367" numLanes="1" speed="13.89"/>
  <edge id="e28_27" from="n28" to="n27" length="216.185" numLanes="1" speed="13.89"/>
  <edge id="e27_36" from="n27" to="n36" length="1150.281" numLanes="1" speed="13.89"/>
  <edge id="e36_31" from="n36" to="n31" length="391.953" numLanes="1" speed="13.89"/>
  <edge id="e31_0" from="n31" to="n0" length="1202.241" numLanes="1" speed="13.89"/>
  <edge id="e0_35" from="n0" to="n35" length="1432.995" numLanes="1" speed="13.89"/>
  <edge id="e35_4" from="n35" to="n4" length="1037.595" numLanes="1" speed="13.89"/>
  <edge id="e4_0" from="n4" to="n0" length="1132.558" numLanes="1" speed="13.89"/>
  <edge id="e0_12" from="n0" to="n12" length="679.113" numLanes="1" speed="13.89"/>
  <edge id="e12_8" from="n12" to="n8" length="843.516" numLanes="1" speed="13.89"/>
  <edge id="e8_32" from="n8" to="n32" length="1433.204" numLanes="1" speed="13.89"/>
  <edge id="e32_5" from="n32" to="n5" length="1196.636" numLanes="1" speed="13.89"/>
  <edge id="e5_6" from="n5" to="n6" length="205.35" numLanes="1" speed="13.89"/>
  <edge id="e6_7" from="n6" to="n7" length="221.908" numLanes="1" speed="13.89"/>
  <edge id="e7_0" from="n7" to="n0" length="546.092" numLanes="1" speed="13.89"/>
  <edge id="e0_16" from="n0" to="n16" length="1489.477" numLanes="1" speed="13.89"/>
  <edge id="e16_0" from="n16" to="n0" length="1489.477" numLanes="1" speed="13.89"/>
  <edge id="e0_14" from="n0" to="n14" length="1075.851" numLanes="1" speed="13.89"/>
  <edge id="e14_13" from="n14" to="n13" length="205.35" numLanes="1" speed="13.89"/>
  <edge id="e13_23" from="n13" to="n23" length="840.382" numLanes="1" speed="13.89"/>
  <edge id="e23_24" from="n23" to="n24" length="211.367" numLanes="1" speed="13.89"/>
  <edge id="e24_10" from="n24" to="n10" length="1068.466" numLanes="1" speed="13.89"/>
  <edge id="e10_9" from="n10" to="n9" length="216.184" numLanes="1" speed="13.89"/>
  <edge id="e9_11" from="n9" to="n11" length="427.1" numLanes="1" speed="13.89"/>
  <edge id="e11_15" from="n11" to="n15" length="843.516" numLanes="1" speed="13.89"/>
  <edge id="e15_0" from="n15" to="n0" length="1276.838" numLanes="1" speed="13.89"/>
</edges>
