<?xml version="1.0" encoding="UTF-8"?>

<!-- generated on 2026-04-20T19:51:53.747378-05:00 by Eclipse SUMO netconvert 1.26.0
<netconvertConfiguration xmlns:xsi="http://www.w3.org/2001/XMLSchema-instance" xsi:noNamespaceSchemaLocation="http://sumo.dlr.de/xsd/netconvertConfiguration.xsd">

    <input>
        <node-files value="sumo_scenario\nodes.nod.xml"/>
        <edge-files value="sumo_scenario\edges.edg.xml"/>
    </input>

    <output>
        <output-file value="sumo_scenario\network.net.xml"/>
    </output>

    <processing>
        <roundabouts.guess value="false"/>
    </processing>

    <junctions>
        <no-internal-links value="true"/>
        <junctions.join value="false"/>
    </junctions>

    <report>
        <no-warnings value="true"/>
    </report>

</netconvertConfiguration>
-->

<net version="1.20" junctionCornerDetail="5" limitTurnSpeed="5.50" xmlns:xsi="http://www.w3.org/2001/XMLSchema-instance" xsi:noNamespaceSchemaLocation="http://sumo.dlr.de/xsd/net_file.xsd">

    <location netOffset="1610.67,901.31" convBoundary="0.00,0.00,3221.33,1836.01" origBoundary="-1610.67,-901.31,1610.67,934.69" projParameter="!"/>

    <edge id="e0_12" from="n0" to="n12" priority="-1" length="679.11">
        <lane id="e0_12_0" index="0" speed="13.89" length="679.11" shape="1589.66,905.52 949.67,984.78"/>
    </edge>
    <edge id="e0_14" from="n0" to="n14" priority="-1" length="1075.85">
        <lane id="e0_14_0" index="0" speed="13.89" length="1075.85" shape="1568.56,900.29 537.01,836.16"/>
    </edge>
    <edge id="e0_16" from="n0" to="n16" priority="-1" length="1489.48">
        <lane id="e0_16_0" index="0" speed="13.89" length="1489.48" shape="1568.93,896.78 136.85,685.91"/>
    </edge>
    <edge id="e0_35" from="n0" to="n35" priority="-1" length="1432.99">
        <lane id="e0_35_0" index="0" speed="13.89" length="1432.99" shape="1635.04,895.96 3026.90,682.75"/>
    </edge>
    <edge id="e0_38" from="n0" to="n38" priority="-1" length="822.47">
        <lane id="e0_38_0" index="0" speed="13.89" length="822.47" shape="1635.52,899.71 2432.60,899.71"/>
    </edge>
    <edge id="e0_42" from="n0" to="n42" priority="-1" length="302.38">
        <lane id="e0_42_0" index="0" speed="13.89" length="302.38" shape="1614.17,917.91 1646.32,1199.76"/>
    </edge>
    <edge id="e0_47" from="n0" to="n47" priority="-1" length="1178.57">
        <lane id="e0_47_0" index="0" speed="13.89" length="1178.57" shape="1583.35,922.76 652.05,1586.94"/>
    </edge>
    <edge id="e0_58" from="n0" to="n58" priority="-1" length="1457.00">
        <lane id="e0_58_0" index="0" speed="13.89" length="1457.00" shape="1581.41,919.71 343.48,1620.41"/>
    </edge>
    <edge id="e10_9" from="n10" to="n9" priority="-1" length="216.18">
        <lane id="e10_9_0" index="0" speed="13.89" length="216.18" shape="1327.75,1134.17 1531.19,1200.23"/>
    </edge>
    <edge id="e11_15" from="n11" to="n15" priority="-1" length="843.52">
        <lane id="e11_15_0" index="0" speed="13.89" length="843.52" shape="1130.18,1052.97 342.12,752.59"/>
    </edge>
    <edge id="e12_8" from="n12" to="n8" priority="-1" length="843.52">
        <lane id="e12_8_0" index="0" speed="13.89" length="843.52" shape="949.30,987.86 1723.86,1283.09"/>
    </edge>
    <edge id="e13_23" from="n13" to="n23" priority="-1" length="840.38">
        <lane id="e13_23_0" index="0" speed="13.89" length="840.38" shape="730.90,898.09 1106.62,149.50"/>
    </edge>
    <edge id="e14_13" from="n14" to="n13" priority="-1" length="205.35">
        <lane id="e14_13_0" index="0" speed="13.89" length="205.35" shape="537.61,833.11 728.95,898.89"/>
    </edge>
    <edge id="e15_0" from="n15" to="n0" priority="-1" length="1276.84">
        <lane id="e15_0_0" index="0" speed="13.89" length="1276.84" shape="342.88,749.50 1569.23,894.79"/>
    </edge>
    <edge id="e16_0" from="n16" to="n0" priority="-1" length="1489.48">
        <lane id="e16_0_0" index="0" speed="13.89" length="1489.48" shape="137.31,682.75 1569.41,893.62"/>
    </edge>
    <edge id="e17_57" from="n17" to="n57" priority="-1" length="520.56">
        <lane id="e17_57_0" index="0" speed="13.89" length="520.56" shape="1.80,602.64 58.68,1117.81"/>
    </edge>
    <edge id="e18_17" from="n18" to="n17" priority="-1" length="150.84">
        <lane id="e18_17_0" index="0" speed="13.89" length="150.84" shape="121.23,522.28 2.51,601.13"/>
    </edge>
    <edge id="e19_0" from="n19" to="n0" priority="-1" length="1367.22">
        <lane id="e19_0_0" index="0" speed="13.89" length="1367.22" shape="328.67,452.05 1593.45,893.60"/>
    </edge>
    <edge id="e1_2" from="n1" to="n2" priority="-1" length="218.50">
        <lane id="e1_2_0" index="0" speed="13.89" length="218.50" shape="3106.37,1837.43 2912.18,1737.28"/>
    </edge>
    <edge id="e20_26" from="n20" to="n26" priority="-1" length="1243.46">
        <lane id="e20_26_0" index="0" speed="13.89" length="1243.46" shape="513.57,365.67 1701.35,-1.46"/>
    </edge>
    <edge id="e21_20" from="n21" to="n20" priority="-1" length="205.35">
        <lane id="e21_20_0" index="0" speed="13.89" length="205.35" shape="708.76,301.95 514.56,368.71"/>
    </edge>
    <edge id="e22_21" from="n22" to="n21" priority="-1" length="221.91">
        <lane id="e22_21_0" index="0" speed="13.89" length="221.91" shape="914.45,218.46 708.84,301.92"/>
    </edge>
    <edge id="e23_24" from="n23" to="n24" priority="-1" length="211.37">
        <lane id="e23_24_0" index="0" speed="13.89" length="211.37" shape="1107.42,148.75 1301.61,65.29"/>
    </edge>
    <edge id="e24_10" from="n24" to="n10" priority="-1" length="1068.47">
        <lane id="e24_10_0" index="0" speed="13.89" length="1068.47" shape="1303.84,66.73 1326.64,1132.68"/>
    </edge>
    <edge id="e25_19" from="n25" to="n19" priority="-1" length="1270.61">
        <lane id="e25_19_0" index="0" speed="13.89" length="1270.61" shape="1507.88,1.70 328.63,449.04"/>
    </edge>
    <edge id="e26_25" from="n26" to="n25" priority="-1" length="194.19">
        <lane id="e26_25_0" index="0" speed="13.89" length="194.19" shape="1701.81,1.60 1508.45,1.60"/>
    </edge>
    <edge id="e27_36" from="n27" to="n36" priority="-1" length="1150.28">
        <lane id="e27_36_0" index="0" speed="13.89" length="1150.28" shape="1897.37,82.30 2825.36,743.72"/>
    </edge>
    <edge id="e28_27" from="n28" to="n27" priority="-1" length="216.19">
        <lane id="e28_27_0" index="0" speed="13.89" length="216.19" shape="2101.23,151.70 1895.98,85.06"/>
    </edge>
    <edge id="e29_28" from="n29" to="n28" priority="-1" length="211.37">
        <lane id="e29_28_0" index="0" speed="13.89" length="211.37" shape="2295.43,235.14 2101.36,151.75"/>
    </edge>
    <edge id="e2_41" from="n2" to="n41" priority="-1" length="1230.47">
        <lane id="e2_41_0" index="0" speed="13.89" length="1230.47" shape="2912.13,1737.26 1838.35,1136.39"/>
    </edge>
    <edge id="e30_29" from="n30" to="n29" priority="-1" length="205.35">
        <lane id="e30_29_0" index="0" speed="13.89" length="205.35" shape="2488.10,301.39 2295.54,235.18"/>
    </edge>
    <edge id="e31_0" from="n31" to="n0" priority="-1" length="1202.24">
        <lane id="e31_0_0" index="0" speed="13.89" length="1202.24" shape="2693.41,386.84 1633.83,892.04"/>
    </edge>
    <edge id="e32_5" from="n32" to="n5" priority="-1" length="1196.64">
        <lane id="e32_5_0" index="0" speed="13.89" length="1196.64" shape="2891.47,451.42 2320.31,1502.95"/>
    </edge>
    <edge id="e33_53" from="n33" to="n53" priority="-1" length="421.17">
        <lane id="e33_53_0" index="0" speed="13.89" length="421.17" shape="3085.84,533.89 3142.96,951.16"/>
    </edge>
    <edge id="e34_1" from="n34" to="n1" priority="-1" length="1240.40">
        <lane id="e34_1_0" index="0" speed="13.89" length="1240.40" shape="3222.92,601.03 3108.69,1836.16"/>
    </edge>
    <edge id="e35_4" from="n35" to="n4" priority="-1" length="1037.60">
        <lane id="e35_4_0" index="0" speed="13.89" length="1037.60" shape="3028.53,685.12 2514.49,1586.43"/>
    </edge>
    <edge id="e36_31" from="n36" to="n31" priority="-1" length="391.95">
        <lane id="e36_31_0" index="0" speed="13.89" length="391.95" shape="2827.79,741.86 2695.59,387.72"/>
    </edge>
    <edge id="e37_30" from="n37" to="n30" priority="-1" length="551.42">
        <lane id="e37_30_0" index="0" speed="13.89" length="551.42" shape="2625.05,832.09 2489.13,302.51"/>
    </edge>
    <edge id="e38_37" from="n38" to="n37" priority="-1" length="205.35">
        <lane id="e38_37_0" index="0" speed="13.89" length="205.35" shape="2433.12,899.62 2624.02,834.00"/>
    </edge>
    <edge id="e39_0" from="n39" to="n0" priority="-1" length="633.79">
        <lane id="e39_0_0" index="0" speed="13.89" length="633.79" shape="2224.74,984.50 1635.38,906.21"/>
    </edge>
    <edge id="e3_34" from="n3" to="n34" priority="-1" length="1195.68">
        <lane id="e3_34_0" index="0" speed="13.89" length="1195.68" shape="2718.59,1682.24 3219.88,600.21"/>
    </edge>
    <edge id="e40_39" from="n40" to="n39" priority="-1" length="216.19">
        <lane id="e40_39_0" index="0" speed="13.89" length="216.19" shape="2032.83,1050.01 2225.02,987.61"/>
    </edge>
    <edge id="e41_40" from="n41" to="n40" priority="-1" length="211.37">
        <lane id="e41_40_0" index="0" speed="13.89" length="211.37" shape="1838.50,1133.52 2032.69,1050.06"/>
    </edge>
    <edge id="e42_3" from="n42" to="n3" priority="-1" length="1177.83">
        <lane id="e42_3_0" index="0" speed="13.89" length="1177.83" shape="1647.26,1201.04 2716.48,1683.03"/>
    </edge>
    <edge id="e43_55" from="n43" to="n55" priority="-1" length="1262.00">
        <lane id="e43_55_0" index="0" speed="13.89" length="1262.00" shape="1437.99,1283.02 1597.65,33.18"/>
    </edge>
    <edge id="e44_43" from="n44" to="n43" priority="-1" length="205.35">
        <lane id="e44_43_0" index="0" speed="13.89" length="205.35" shape="1244.60,1350.46 1436.92,1284.33"/>
    </edge>
    <edge id="e45_44" from="n45" to="n44" priority="-1" length="211.37">
        <lane id="e45_44_0" index="0" speed="13.89" length="211.37" shape="1050.43,1433.89 1244.49,1350.50"/>
    </edge>
    <edge id="e46_45" from="n46" to="n45" priority="-1" length="216.19">
        <lane id="e46_45_0" index="0" speed="13.89" length="216.19" shape="844.82,1500.67 1050.30,1433.94"/>
    </edge>
    <edge id="e47_48" from="n47" to="n48" priority="-1" length="205.35">
        <lane id="e47_48_0" index="0" speed="13.89" length="205.35" shape="651.64,1587.15 457.45,1653.91"/>
    </edge>
    <edge id="e48_56" from="n48" to="n56" priority="-1" length="1330.11">
        <lane id="e48_56_0" index="0" speed="13.89" length="1330.11" shape="455.38,1652.81 112.68,367.61"/>
    </edge>
    <edge id="e49_51" from="n49" to="n51" priority="-1" length="1405.94">
        <lane id="e49_51_0" index="0" speed="13.89" length="1405.94" shape="253.63,1734.34 1656.17,1784.32"/>
    </edge>
    <edge id="e4_0" from="n4" to="n0" priority="-1" length="1132.56">
        <lane id="e4_0_0" index="0" speed="13.89" length="1132.56" shape="2512.13,1586.91 1624.99,914.18"/>
    </edge>
    <edge id="e50_18" from="n50" to="n18" priority="-1" length="1287.03">
        <lane id="e50_18_0" index="0" speed="13.89" length="1287.03" shape="55.52,1802.53 123.71,523.69"/>
    </edge>
    <edge id="e51_46" from="n51" to="n46" priority="-1" length="859.25">
        <lane id="e51_46_0" index="0" speed="13.89" length="859.25" shape="1655.60,1787.36 844.78,1503.70"/>
    </edge>
    <edge id="e52_0" from="n52" to="n0" priority="-1" length="1500.04">
        <lane id="e52_0_0" index="0" speed="13.89" length="1500.04" shape="2969.34,1537.02 1627.08,910.73"/>
    </edge>
    <edge id="e53_52" from="n53" to="n52" priority="-1" length="608.79">
        <lane id="e53_52_0" index="0" speed="13.89" length="608.79" shape="3142.91,951.83 2971.56,1536.02"/>
    </edge>
    <edge id="e54_33" from="n54" to="n33" priority="-1" length="303.39">
        <lane id="e54_33_0" index="0" speed="13.89" length="303.39" shape="2914.23,282.85 3085.57,533.21"/>
    </edge>
    <edge id="e55_54" from="n55" to="n54" priority="-1" length="1337.31">
        <lane id="e55_54_0" index="0" speed="13.89" length="1337.31" shape="1599.54,31.81 2913.21,282.18"/>
    </edge>
    <edge id="e56_22" from="n56" to="n22" priority="-1" length="813.61">
        <lane id="e56_22_0" index="0" speed="13.89" length="813.61" shape="113.93,365.63 913.55,215.41"/>
    </edge>
    <edge id="e57_49" from="n57" to="n49" priority="-1" length="647.38">
        <lane id="e57_49_0" index="0" speed="13.89" length="647.38" shape="58.74,1118.12 252.16,1733.22"/>
    </edge>
    <edge id="e58_50" from="n58" to="n50" priority="-1" length="339.51">
        <lane id="e58_50_0" index="0" speed="13.89" length="339.51" shape="343.56,1620.37 57.99,1803.97"/>
    </edge>
    <edge id="e5_6" from="n5" to="n6" priority="-1" length="205.35">
        <lane id="e5_6_0" index="0" speed="13.89" length="205.35" shape="2318.38,1503.70 2124.19,1436.93"/>
    </edge>
    <edge id="e6_7" from="n6" to="n7" priority="-1" length="221.91">
        <lane id="e6_7_0" index="0" speed="13.89" length="221.91" shape="2124.11,1436.90 1918.49,1353.45"/>
    </edge>
    <edge id="e7_0" from="n7" to="n0" priority="-1" length="546.09">
        <lane id="e7_0_0" index="0" speed="13.89" length="546.09" shape="1917.77,1352.87 1618.89,916.15"/>
    </edge>
    <edge id="e8_32" from="n8" to="n32" priority="-1" length="1433.20">
        <lane id="e8_32_0" index="0" speed="13.89" length="1433.20" shape="1725.37,1282.90 2889.13,449.36"/>
    </edge>
    <edge id="e9_11" from="n9" to="n11" priority="-1" length="427.10">
        <lane id="e9_11_0" index="0" speed="13.89" length="427.10" shape="1530.14,1203.25 1130.46,1053.08"/>
    </edge>

    <junction id="n0" type="priority" x="1610.67" y="901.31" incLanes="e7_0_0 e4_0_0 e52_0_0 e39_0_0 e31_0_0 e19_0_0 e15_0_0 e16_0_0" intLanes="" shape="1612.58,918.09 1615.76,917.73 1617.57,917.06 1620.21,915.25 1624.03,915.46 1625.96,912.91 1626.40,912.18 1627.75,909.28 1625.90,908.28 1625.30,907.58 1625.94,907.19 1627.83,907.09 1630.97,907.30 1635.34,907.82 1635.56,898.11 1635.51,897.50 1633.36,890.49 1625.56,894.01 1619.38,896.12 1613.97,896.91 1608.50,896.45 1602.12,894.82 1593.98,892.09 1592.92,895.11 1591.13,895.45 1587.24,895.15 1582.02,894.63 1575.93,893.96 1569.47,893.21 1568.69,898.36 1568.66,898.70 1568.46,901.89 1574.31,902.27 1579.84,902.65 1584.59,903.03 1588.09,903.39 1589.87,903.69 1589.46,903.94 1589.86,907.11 1592.44,907.32 1592.58,908.69 1590.87,910.85 1587.92,913.43 1584.30,916.04 1580.62,918.32 1582.20,921.10 1582.43,921.45 1584.28,924.06 1590.84,919.62 1597.16,915.93 1602.87,913.47 1607.60,912.70 1610.96,914.08">
        <request index="0"  response="0000010000000000000000000000000000000001000000000000000000000000" foes="0000010000000100000001000000010000000001000000010000000100000000"/>
        <request index="1"  response="0000110000000000000000000000000000000011000000000000000000000000" foes="0000110000001100000011000000110000000011000000110000001100000000"/>
        <request index="2"  response="0001110000000000000000000001000000000111000000000000000000000000" foes="0001110000011100000111000001110000000111000001110000011100000000"/>
        <request index="3"  response="0011110000000000000000000001000000001111000000000000000000000000" foes="0011110000111100001111000011110000001111000011110000111100000000"/>
        <request index="4"  response="0111110000000000000000000001000000011111000100000001000000000000" foes="0111110010111100011111000111110000011111000111110001111100000000"/>
        <request index="5"  response="0111110000000000000000001001000000111111001100000011000000000000" foes="1111110011111100111111001111110000111111001111110011111100000000"/>
        <request index="6"  response="0000001100000011000000110000001101111111001100000011000000000000" foes="0000001100000011000000110000001101111111011111110111111100000000"/>
        <request index="7"  response="0000001000000010000000100000001001111111001100000011000000000000" foes="0000001000000010000000100000001011111111111111111111111100000000"/>
        <request index="8"  response="0000010000000000000000000000000000000001000000000000000011111111" foes="0000010000000100000001000000010000000001000000010000000011111111"/>
        <request index="9"  response="0000110000000000000000000000000000000011000000000000000011111110" foes="0000110000001100000011000000110000000011000000110000000011111110"/>
        <request index="10" response="0001110000000000000000000001000000000111000000000000000011111100" foes="0001110000011100000111000001110000000111000001110000000011111100"/>
        <request index="11" response="0011110000000000000000000001000000001111000000000000000011111000" foes="0011110000111100001111000011110000001111000011110000000011111000"/>
        <request index="12" response="0111110000000000000000000000000000011111000000000000000000000000" foes="0111110010111100011111000111110000011111000111110000000011110000"/>
        <request index="13" response="0111110000000000000000000000000000111111000000000000000000000000" foes="1111110011111100111111001111110000111111001111110000000011100000"/>
        <request index="14" response="0000001100000011000000110000001101111111001100000000000011000000" foes="0000001100000011000000110000001101111111011111110000000011000000"/>
        <request index="15" response="0000001000000010000000100000001001111111001100000000000010000000" foes="0000001000000010000000100000001011111111111111110000000010000000"/>
        <request index="16" response="0000010000000000000000000000000000000001000000001111111111111111" foes="0000010000000100000001000000010000000001000000001111111111111111"/>
        <request index="17" response="0000110000000000000000000000000000000011000000001111111011111110" foes="0000110000001100000011000000110000000011000000001111111011111110"/>
        <request index="18" response="0001110000000000000000000001000000000111000000001111110011111100" foes="0001110000011100000111000001110000000111000000001111110011111100"/>
        <request index="19" response="0011110000000000000000000001000000001111000000001111100011111000" foes="0011110000111100001111000011110000001111000000001111100011111000"/>
        <request index="20" response="0111110000000000000000000000000000011111000000000011000000000000" foes="0111110010111100011111000111110000011111000000001111000011110000"/>
        <request index="21" response="0111110000000000000000000000000000111111000000000010000000000000" foes="1111110011111100111111001111110000111111000000001110000011100000"/>
        <request index="22" response="0000001100000011000000110000001101111111000000001100000011000000" foes="0000001100000011000000110000001101111111000000001100000011000000"/>
        <request index="23" response="0000001000000010000000100000001001111111000000001000000010000000" foes="0000001000000010000000100000001011111111000000001000000010000000"/>
        <request index="24" response="0000000000000000000000000000000000000000000000000000000000000000" foes="0000010000000100000001000000010000000000111111111111111111111111"/>
        <request index="25" response="0000000000000000000000000000000000000000000000000000000000000000" foes="0000110000001100000011000000110000000000111111101111111011111110"/>
        <request index="26" response="0000000000000000000000000000000000000000000000000000000000000000" foes="0001110000011100000111000001110000000000111111001111110011111100"/>
        <request index="27" response="0000000000000000000000000000000000000000000000000000000000000000" foes="0011110000111100001111000011110000000000111110001111100011111000"/>
        <request index="28" response="0000000000000000000000000000000000000000000000000000000000000000" foes="0111110010111100011111000111110000000000111100001111000011110000"/>
        <request index="29" response="0000000000000000000000000000000000000000000000000000000000000000" foes="1111110011111100111111001111110000000000111000001110000011100000"/>
        <request index="30" response="0000001100000000000000000000000000000000000000000000000000000000" foes="0000001100000011000000110000001100000000110000001100000011000000"/>
        <request index="31" response="0000001000000010000000100000001000000000100000001000000010000000" foes="0000001000000010000000100000001000000000100000001000000010000000"/>
        <request index="32" response="0000000100000000000000000000000001000000000000000000000000000000" foes="0000000100000001000000010000000001000000010000000100000001000000"/>
        <request index="33" response="0000001100000010000000100000000001000000000000000000000000000000" foes="0000001100000011000000110000000011000000110000001100000011000000"/>
        <request index="34" response="0000011100000010000000100000000000111111001111110011111100111111" foes="0000011100000111000001110000000000111111001111110011111100111111"/>
        <request index="35" response="0000111100000010000000100000000000111110001111100011111000111110" foes="0000111100001111000011110000000000111110001111100011111000111110"/>
        <request index="36" response="0001111100000000000000000000000000111100001100000011000000000000" foes="0001111100011111000111110000000000111100001111000011110000111100"/>
        <request index="37" response="0011111100000010000000100000000000111000001110000011100000111000" foes="0011111100111111001111110000000000111000001110000011100000111000"/>
        <request index="38" response="0111111100000010000000100000000000110000001100000011000000110000" foes="0111111110111111011111110000000000110000001100000011000000110000"/>
        <request index="39" response="0111111100000000000000000000000000100000001000000010000000000000" foes="1111111111111111111111110000000000100000001000000010000000100000"/>
        <request index="40" response="0000000100000000000000001111111101000000000000000000000000000000" foes="0000000100000001000000001111111101000000010000000100000001000000"/>
        <request index="41" response="0000001100000000000000001001000001000000000000000000000000000000" foes="0000001100000011000000001111111011000000110000001100000011000000"/>
        <request index="42" response="0000011100000010000000001111110000111111001111110011111100111111" foes="0000011100000111000000001111110000111111001111110011111100111111"/>
        <request index="43" response="0000111100000010000000001111100000111110001111100011111000111110" foes="0000111100001111000000001111100000111110001111100011111000111110"/>
        <request index="44" response="0001111100000010000000001111000000111100001111000011110000111100" foes="0001111100011111000000001111000000111100001111000011110000111100"/>
        <request index="45" response="0011111100000010000000001110000000111000001110000011100000111000" foes="0011111100111111000000001110000000111000001110000011100000111000"/>
        <request index="46" response="0111111100000010000000001100000000110000001100000011000000110000" foes="0111111110111111000000001100000000110000001100000011000000110000"/>
        <request index="47" response="0111111100000010000000001000000000100000001000000010000000100000" foes="1111111111111111000000001000000000100000001000000010000000100000"/>
        <request index="48" response="0000000100000000111111111111111101000000000000000000000000000000" foes="0000000100000000111111111111111101000000010000000100000001000000"/>
        <request index="49" response="0000001100000000000000101001000001000000000000000000000000000000" foes="0000001100000000111111101111111011000000110000001100000011000000"/>
        <request index="50" response="0000011100000000111111001111110000111111001111110011111100111111" foes="0000011100000000111111001111110000111111001111110011111100111111"/>
        <request index="51" response="0000111100000000111110001111100000111110001111100011111000111110" foes="0000111100000000111110001111100000111110001111100011111000111110"/>
        <request index="52" response="0001111100000000111100001111000000111100001111000011110000111100" foes="0001111100000000111100001111000000111100001111000011110000111100"/>
        <request index="53" response="0011111100000000111000001110000000111000001110000011100000111000" foes="0011111100000000111000001110000000111000001110000011100000111000"/>
        <request index="54" response="0111111100000000100000001000000000100000001000000010000000100000" foes="1111111100000000100000001000000000100000001000000010000000100000"/>
        <request index="55" response="0111111100000000110000001100000000110000001100000011000000110000" foes="0111111100000000110000001100000000110000001100000011000000110000"/>
        <request index="56" response="0000000000000000000000000000000000000000000000000000000000000000" foes="0000000011111111111111111111111101000000010000000100000001000000"/>
        <request index="57" response="0000000000000000000000000000000000000000000000000000000000000000" foes="0000000011111110111111101111111011000000110000001100000011000000"/>
        <request index="58" response="0000000000000000000000000000000000111111000000000000000000000000" foes="0000000011111100111111001111110000111111001111110011111100111111"/>
        <request index="59" response="0000000000000000000000000000000000111110000000000000000000000000" foes="0000000011111000111110001111100000111110001111100011111000111110"/>
        <request index="60" response="0000000000000000000000000000000000111100000000000000000000000000" foes="0000000011110000111100001111000000111100001111000011110000111100"/>
        <request index="61" response="0000000000000000000000000000000000111000000000000000000000000000" foes="0000000011100000111000001110000000111000001110000011100000111000"/>
        <request index="62" response="0000000000000000000000000000000000110000000000000000000000000000" foes="0000000011000000110000001100000000110000001100000011000000110000"/>
        <request index="63" response="0000000001000000100000001000000000100000001000000010000000100000" foes="0000000001000000100000001000000000100000001000000010000000100000"/>
    </junction>
    <junction id="n1" type="priority" x="3107.10" y="1836.01" incLanes="e34_1_0" intLanes="" shape="3110.29,1836.30 3107.10,1836.01 3105.63,1838.85 3108.02,1839.54 3108.90,1839.30 3109.58,1838.69 3110.04,1837.69">
        <request index="0" response="0" foes="0"/>
    </junction>
    <junction id="n10" type="priority" x="1325.09" y="1134.99" incLanes="e24_10_0" intLanes="" shape="1327.25,1135.69 1328.24,1132.65 1325.04,1132.72 1325.31,1134.06 1325.62,1134.60 1326.05,1135.05 1326.59,1135.41">
        <request index="0" response="0" foes="0"/>
    </junction>
    <junction id="n11" type="priority" x="1130.89" y="1051.53" incLanes="e9_11_0" intLanes="" shape="1129.90,1054.58 1131.03,1051.58 1130.75,1051.48 1129.61,1054.47">
        <request index="0" response="0" foes="0"/>
    </junction>
    <junction id="n12" type="priority" x="936.70" y="984.77" incLanes="e0_12_0" intLanes="" shape="948.73,989.35 949.87,986.36 949.47,983.19 945.90,983.80 943.71,984.58 942.90,985.52 943.46,986.63 945.41,987.91">
        <request index="0" response="0" foes="0"/>
    </junction>
    <junction id="n13" type="priority" x="731.08" y="901.31" incLanes="e14_13_0" intLanes="" shape="732.33,898.81 729.47,897.37 728.43,900.40 730.04,900.63 730.73,900.46 731.34,900.10 731.88,899.55">
        <request index="0" response="0" foes="0"/>
    </junction>
    <junction id="n14" type="priority" x="536.89" y="834.55" incLanes="e0_14_0" intLanes="" shape="536.89,834.55 537.93,831.52 536.69,837.74">
        <request index="0" response="0" foes="0"/>
    </junction>
    <junction id="n15" type="priority" x="342.69" y="751.09" incLanes="e11_15_0" intLanes="" shape="342.69,751.09 343.07,747.91 341.55,754.08">
        <request index="0" response="0" foes="0"/>
    </junction>
    <junction id="n16" type="priority" x="137.08" y="684.33" incLanes="e0_16_0" intLanes="" shape="137.08,684.33 136.61,687.50 137.08,684.33">
        <request index="0" response="0" foes="0"/>
    </junction>
    <junction id="n17" type="priority" x="0.00" y="600.88" incLanes="e18_17_0" intLanes="" shape="0.21,602.82 3.39,602.47 1.62,599.80 0.75,600.62 0.46,601.09 0.28,601.62 0.19,602.20">
        <request index="0" response="0" foes="0"/>
    </junction>
    <junction id="n18" type="priority" x="125.65" y="517.42" incLanes="e50_18_0" intLanes="" shape="120.34,520.94 122.12,523.61 125.31,523.78 124.91,520.64 124.24,519.89 123.25,519.69 121.96,520.04">
        <request index="0" response="0" foes="0"/>
    </junction>
    <junction id="n19" type="priority" x="319.85" y="450.66" incLanes="e25_19_0" intLanes="" shape="328.15,453.56 329.20,450.54 328.07,447.54 325.79,448.58 324.42,449.60 323.98,450.60 324.45,451.60 325.84,452.58">
        <request index="0" response="0" foes="0"/>
    </junction>
    <junction id="n2" type="priority" x="2912.91" y="1735.86" incLanes="e1_2_0" intLanes="" shape="2911.53,1738.75 2912.99,1735.90 2912.83,1735.81 2911.27,1738.61">
        <request index="0" response="0" foes="0"/>
    </junction>
    <junction id="n20" type="priority" x="514.04" y="367.20" incLanes="e21_20_0" intLanes="" shape="514.04,367.20 513.10,364.14 515.08,370.23">
        <request index="0" response="0" foes="0"/>
    </junction>
    <junction id="n21" type="priority" x="708.24" y="300.44" incLanes="e22_21_0" intLanes="" shape="709.44,303.41 708.24,300.44 709.28,303.47">
        <request index="0" response="0" foes="0"/>
    </junction>
    <junction id="n22" type="priority" x="913.85" y="216.98" incLanes="e56_22_0" intLanes="" shape="913.85,216.98 915.05,219.95 913.26,213.84">
        <request index="0" response="0" foes="0"/>
    </junction>