<nodes>
  <node id="n0" x="0.0" y="0.0" type="priority"/>
  <node id="n1" x="1496.434" y="934.694" type="priority"/>
  <node id="n2" x="1302.24" y="834.548" type="priority"/>
  <node id="n3" x="1108.047" y="784.475" type="priority"/>
  <node id="n4" x="902.43" y="684.33" type="priority"/>
  <node id="n5" x="708.236" y="600.875" type="priority"/>
  <node id="n6" x="514.042" y="534.111" type="priority"/>
  <node id="n7" x="308.425" y="450.656" type="priority"/>
  <node id="n8" x="114.232" y="383.892" type="priority"/>
  <node id="n9" x="-79.962" y="300.437" type="priority"/>
  <node id="n10" x="-285.579" y="233.674" type="priority"/>
  <node id="n11" x="-479.773" y="150.219" type="priority"/>
  <node id="n12" x="-673.966" y="83.455" type="priority"/>
  <node id="n13" x="-879.583" y="0.0" type="priority"/>
  <node id="n14" x="-1073.777" y="-66.764" type="priority"/>
  <node id="n15" x="-1267.971" y="-150.219" type="priority"/>
  <node id="n16" x="-1473.588" y="-216.983" type="priority"/>
  <node id="n17" x="-1610.666" y="-300.437" type="priority"/>
  <node id="n18" x="-1485.011" y="-383.892" type="priority"/>
  <node id="n19" x="-1290.817" y="-450.656" type="priority"/>
  <node id="n20" x="-1096.623" y="-534.111" type="priority"/>
  <node id="n21" x="-902.43" y="-600.875" type="priority"/>
  <node id="n22" x="-696.813" y="-684.33" type="priority"/>
  <node id="n23" x="-502.619" y="-751.093" type="priority"/>
  <node id="n24" x="-308.425" y="-834.548" type="priority"/>
  <node id="n25" x="-102.808" y="-901.312" type="priority"/>
  <node id="n26" x="91.385" y="-901.312" type="priority"/>
  <node id="n27" x="285.579" y="-817.857" type="priority"/>
  <node id="n28" x="491.196" y="-751.093" type="priority"/>
  <node id="n29" x="685.39" y="-667.639" type="priority"/>
  <node id="n30" x="879.583" y="-600.875" type="priority"/>
  <node id="n31" x="1085.2" y="-517.42" type="priority"/>
  <node id="n32" x="1279.394" y="-450.656" type="priority"/>
  <node id="n33" x="1473.588" y="-367.201" type="priority"/>
  <node id="n34" x="1610.666" y="-300.437" type="priority"/>
  <node id="n35" x="1416.472" y="-216.983" type="priority"/>
  <node id="n36" x="1222.278" y="-150.219" type="priority"/>
  <node id="n37" x="1016.661" y="-66.764" type="priority"/>
  <node id="n38" x="822.468" y="0.0" type="priority"/>
  <node id="n39" x="628.274" y="83.455" type="priority"/>
  <node id="n40" x="422.657" y="150.219" type="priority"/>
  <node id="n41" x="228.463" y="233.674" type="priority"/>
  <node id="n42" x="34.269" y="300.437" type="priority"/>
  <node id="n43" x="-171.347" y="383.892" type="priority"/>
  <node id="n44" x="-365.541" y="450.656" type="priority"/>
  <node id="n45" x="-559.735" y="534.111" type="priority"/>
  <node id="n46" x="-765.352" y="600.875" type="priority"/>
  <node id="n47" x="-959.545" y="684.33" type="priority"/>
  <node id="n48" x="-1153.739" y="751.093" type="priority"/>
  <node id="n49" x="-1359.356" y="834.548" type="priority"/>
  <node id="n50" x="-1553.55" y="901.312" type="priority"/>
  <node id="n51" x="45.693" y="884.621" type="priority"/>
  <node id="n52" x="1359.356" y="634.257" type="priority"/>
  <node id="n53" x="1530.704" y="50.073" type="priority"/>
  <node id="n54" x="1302.24" y="-617.566" type="priority"/>
  <node id="n55" x="-11.423" y="-867.93" type="priority"/>
  <node id="n56" x="-1496.434" y="-534.111" type="priority"/>
  <node id="n57" x="-1553.55" y="216.983" type="priority"/>
  <node id="n58" x="-1267.971" y="717.711" type="priority"/>
</nodes>
